PV_Scenarios/PV_combined/scenario_33_combined/PV_combined90per.txt
New PVSystem.PV_1 phases=1 bus1=G2000UJ0800_N283722_sec_1.3 kV=0.24 kVA=3.96 irradiance=1 Pmpp=3.3 %cutin=0.1 %cutout=0.1
New PVSystem.PV_2 phases=1 bus1=G2000VI6200_N283684_sec_11.2 kV=0.24 kVA=8.2545 irradiance=1 Pmpp=6.8788 %cutin=0.1 %cutout=0.1
New PVSystem.PV_3 phases=1 bus1=G2000WM6400_N283824_sec_5.3 kV=0.24 kVA=2.76 irradiance=1 Pmpp=2.3 %cutin=0.1 %cutout=0.1
New PVSystem.PV_4 phases=1 bus1=G2000WN0100_N283840_sec_2.2 kV=0.24 kVA=6.72 irradiance=1 Pmpp=5.6 %cutin=0.1 %cutout=0.1
New PVSystem.PV_5 phases=1 bus1=G2000XH7500_N283636_sec_3.3 kV=0.24 kVA=2.64 irradiance=1 Pmpp=2.2 %cutin=0.1 %cutout=0.1
New PVSystem.PV_6 phases=1 bus1=G2000XJ9800_N283726_sec_1.2 kV=0.24 kVA=12.9053 irradiance=1 Pmpp=10.7544 %cutin=0.1 %cutout=0.1
New PVSystem.PV_7 phases=1 bus1=G2000XL0100_N283777_sec_1.1 kV=0.24 kVA=3.72 irradiance=1 Pmpp=3.1 %cutin=0.1 %cutout=0.1
New PVSystem.PV_8 phases=1 bus1=G2000XN7400_N283885_sec_1.3 kV=0.24 kVA=3 irradiance=1 Pmpp=2.5 %cutin=0.1 %cutout=0.1
New PVSystem.PV_9 phases=1 bus1=G2000XP1100_N283893_sec_1.3 kV=0.24 kVA=4.3894 irradiance=1 Pmpp=3.6579 %cutin=0.1 %cutout=0.1
New PVSystem.PV_10 phases=1 bus1=G2001QO2100_N274563_sec_3.2 kV=0.24 kVA=11.4552 irradiance=1 Pmpp=9.546 %cutin=0.1 %cutout=0.1
New PVSystem.PV_11 phases=1 bus1=G2001SH3700_N274411_sec_2.1 kV=0.24 kVA=3.96 irradiance=1 Pmpp=3.3 %cutin=0.1 %cutout=0.1
New PVSystem.PV_12 phases=1 bus1=G2001SL9500_N284284_sec_2.2 kV=0.24 kVA=3.9691 irradiance=1 Pmpp=3.3076 %cutin=0.1 %cutout=0.1
New PVSystem.PV_13 phases=1 bus1=G2001TI4000_N284133_sec_1.2 kV=0.24 kVA=5.347 irradiance=1 Pmpp=4.4558 %cutin=0.1 %cutout=0.1
New PVSystem.PV_14 phases=1 bus1=G2001VK3300_N284221_sec_5.2 kV=0.24 kVA=4.0058 irradiance=1 Pmpp=3.3382 %cutin=0.1 %cutout=0.1
New PVSystem.PV_15 phases=1 bus1=G2001WB3100_N283924_sec_6.3 kV=0.24 kVA=3.84 irradiance=1 Pmpp=3.2 %cutin=0.1 %cutout=0.1
New PVSystem.PV_16 phases=1 bus1=G2001WL3500_N284250_sec_3.2 kV=0.24 kVA=12.6 irradiance=1 Pmpp=10.5 %cutin=0.1 %cutout=0.1
New PVSystem.PV_17 phases=1 bus1=G2001YA0800_N283921_sec_1.3 kV=0.24 kVA=4.2 irradiance=1 Pmpp=3.5 %cutin=0.1 %cutout=0.1
New PVSystem.PV_18 phases=1 bus1=G2100AG2100_N283585_sec_9.3 kV=0.24 kVA=3.12 irradiance=1 Pmpp=2.6 %cutin=0.1 %cutout=0.1
New PVSystem.PV_19 phases=1 bus1=G2100AH2000_N283617_sec_3.3 kV=0.24 kVA=4.0126 irradiance=1 Pmpp=3.3438 %cutin=0.1 %cutout=0.1
New PVSystem.PV_20 phases=1 bus1=G2100AH8200_N283618_sec_7.3 kV=0.24 kVA=3.24 irradiance=1 Pmpp=2.7 %cutin=0.1 %cutout=0.1
New PVSystem.PV_21 phases=1 bus1=G2100CH1800_N1385522_sec_8.3 kV=0.24 kVA=3.84 irradiance=1 Pmpp=3.2 %cutin=0.1 %cutout=0.1
New PVSystem.PV_22 phases=1 bus1=G2100CH7400_N283632_sec_1.3 kV=0.24 kVA=2.28 irradiance=1 Pmpp=1.9 %cutin=0.1 %cutout=0.1
New PVSystem.PV_23 phases=1 bus1=G2100CH7400_N283632_sec_8.3 kV=0.24 kVA=3.36 irradiance=1 Pmpp=2.8 %cutin=0.1 %cutout=0.1
New PVSystem.PV_24 phases=1 bus1=G2100DH9500_N292300_sec_3.3 kV=0.24 kVA=3.96 irradiance=1 Pmpp=3.3 %cutin=0.1 %cutout=0.1
New PVSystem.PV_25 phases=1 bus1=G2100DJ0500_N283740_sec_5.2 kV=0.24 kVA=10.2 irradiance=1 Pmpp=8.5 %cutin=0.1 %cutout=0.1
New PVSystem.PV_26 phases=1 bus1=G2100DK1500_N283758_sec_3.2 kV=0.24 kVA=6.48 irradiance=1 Pmpp=5.4 %cutin=0.1 %cutout=0.1
New PVSystem.PV_27 phases=1 bus1=G2100DL9800_N283744_sec_3.2 kV=0.24 kVA=11.04 irradiance=1 Pmpp=9.2 %cutin=0.1 %cutout=0.1
New PVSystem.PV_28 phases=1 bus1=G2100DN4800_N283861_sec_10.3 kV=0.24 kVA=0.72 irradiance=1 Pmpp=0.6 %cutin=0.1 %cutout=0.1
New PVSystem.PV_29 phases=1 bus1=G2100DO7000_N283865_sec_1.3 kV=0.24 kVA=0.96 irradiance=1 Pmpp=0.8 %cutin=0.1 %cutout=0.1
New PVSystem.PV_30 phases=1 bus1=G2100EM1500_N292428_sec_1.3 kV=0.24 kVA=4.92 irradiance=1 Pmpp=4.1 %cutin=0.1 %cutout=0.1
New PVSystem.PV_31 phases=3 conn = delta bus1=G2100FJ3800_N292380_sec_15.1.2.3 kV=0.48 kVA=3 irradiance=1 Pmpp=2.5 %cutin=0.1 %cutout=0.1
New PVSystem.PV_32 phases=3 conn = delta bus1=G2100FJ4400_N292396_sec_7.1.2.3 kV=0.48 kVA=53.4 irradiance=1 Pmpp=44.5 %cutin=0.1 %cutout=0.1
New PVSystem.PV_33 phases=1 bus1=G2100GN7300_N292464_sec_1.1 kV=0.24 kVA=3.72 irradiance=1 Pmpp=3.1 %cutin=0.1 %cutout=0.1
New PVSystem.PV_34 phases=1 bus1=G2100HM9900_N292433_sec_10.3 kV=0.24 kVA=1.68 irradiance=1 Pmpp=1.4 %cutin=0.1 %cutout=0.1
New PVSystem.PV_35 phases=1 bus1=G2100HM9900_N292433_sec_23.3 kV=0.24 kVA=3.12 irradiance=1 Pmpp=2.6 %cutin=0.1 %cutout=0.1
New PVSystem.PV_36 phases=1 bus1=G2100HN5600_N292453_sec_7.3 kV=0.24 kVA=2.16 irradiance=1 Pmpp=1.8 %cutin=0.1 %cutout=0.1
New PVSystem.PV_37 phases=1 bus1=G2100HN5600_N292453_sec_22.3 kV=0.24 kVA=1.56 irradiance=1 Pmpp=1.3 %cutin=0.1 %cutout=0.1
New PVSystem.PV_38 phases=1 bus1=G2100HN5600_N292453_sec_58.3 kV=0.24 kVA=2.88 irradiance=1 Pmpp=2.4 %cutin=0.1 %cutout=0.1
New PVSystem.PV_39 phases=1 bus1=G2100IN2700_N292475_sec_5.3 kV=0.24 kVA=0.48 irradiance=1 Pmpp=0.4 %cutin=0.1 %cutout=0.1
New PVSystem.PV_40 phases=3 conn = delta bus1=G2100KO2700_N300582_sec_2.1.2.3 kV=0.48 kVA=2.64 irradiance=1 Pmpp=2.2 %cutin=0.1 %cutout=0.1
New PVSystem.PV_41 phases=1 bus1=G2100NM6600_N300513_sec_7.1 kV=0.24 kVA=4.32 irradiance=1 Pmpp=3.6 %cutin=0.1 %cutout=0.1
New PVSystem.PV_42 phases=1 bus1=G2100ON7300_N300541_sec_5.1 kV=0.24 kVA=6.72 irradiance=1 Pmpp=5.6 %cutin=0.1 %cutout=0.1
New PVSystem.PV_43 phases=1 bus1=G2100RM5200_N312343_sec_8.3 kV=0.24 kVA=1.92 irradiance=1 Pmpp=1.6 %cutin=0.1 %cutout=0.1
New PVSystem.PV_44 phases=1 bus1=G2100RN0300_N300550_sec_5.3 kV=0.24 kVA=2.88 irradiance=1 Pmpp=2.4 %cutin=0.1 %cutout=0.1
New PVSystem.PV_45 phases=1 bus1=G2100RN9500_N312395_sec_10.3 kV=0.24 kVA=5.52 irradiance=1 Pmpp=4.6 %cutin=0.1 %cutout=0.1
New PVSystem.PV_46 phases=1 bus1=G2101AC2700_N284001_sec_2.3 kV=0.24 kVA=6.72 irradiance=1 Pmpp=5.6 %cutin=0.1 %cutout=0.1
New PVSystem.PV_47 phases=1 bus1=G2101AC9800_N283938_sec_4.3 kV=0.24 kVA=5.88 irradiance=1 Pmpp=4.9 %cutin=0.1 %cutout=0.1
New PVSystem.PV_48 phases=1 bus1=G2101AL8800_N284268_sec_2.1 kV=0.24 kVA=3 irradiance=1 Pmpp=2.5 %cutin=0.1 %cutout=0.1
New PVSystem.PV_49 phases=1 bus1=G2101BC7200_N283931_sec_1.1 kV=0.24 kVA=7.08 irradiance=1 Pmpp=5.9 %cutin=0.1 %cutout=0.1
New PVSystem.PV_50 phases=1 bus1=G2101BC7200_N283931_sec_5.1 kV=0.24 kVA=9.72 irradiance=1 Pmpp=8.1 %cutin=0.1 %cutout=0.1
New PVSystem.PV_51 phases=1 bus1=G2101DI0000_N284130_sec_1.3 kV=0.24 kVA=3.36 irradiance=1 Pmpp=2.8 %cutin=0.1 %cutout=0.1
New PVSystem.PV_52 phases=1 bus1=G2101DM2100_N284273_sec_1.1 kV=0.24 kVA=6 irradiance=1 Pmpp=5 %cutin=0.1 %cutout=0.1
New PVSystem.PV_53 phases=1 bus1=G2101EC2600_N292649_sec_3.1 kV=0.24 kVA=7.2 irradiance=1 Pmpp=6 %cutin=0.1 %cutout=0.1
New PVSystem.PV_54 phases=1 bus1=G2101EG5500_N292730_sec_1.2 kV=0.24 kVA=6.6 irradiance=1 Pmpp=5.5 %cutin=0.1 %cutout=0.1
New PVSystem.PV_55 phases=1 bus1=G2101EG7000_N292703_sec_3.2 kV=0.24 kVA=6.9032 irradiance=1 Pmpp=5.7527 %cutin=0.1 %cutout=0.1
New PVSystem.PV_56 phases=1 bus1=G2101FC8400_N292612_sec_20.2 kV=0.24 kVA=6.72 irradiance=1 Pmpp=5.6 %cutin=0.1 %cutout=0.1
New PVSystem.PV_57 phases=1 bus1=G2101FC9500_N292618_sec_18.1 kV=0.24 kVA=1.08 irradiance=1 Pmpp=0.9 %cutin=0.1 %cutout=0.1
New PVSystem.PV_58 phases=1 bus1=G2101FE1400_N292665_sec_1.1 kV=0.24 kVA=1.2 irradiance=1 Pmpp=1 %cutin=0.1 %cutout=0.1
New PVSystem.PV_59 phases=1 bus1=G2101FJ6800_N284227_sec_1.1 kV=0.24 kVA=3.888 irradiance=1 Pmpp=3.24 %cutin=0.1 %cutout=0.1
New PVSystem.PV_60 phases=3 conn = delta bus1=G2101GA2000_N292532_sec_2.1.2.3 kV=0.48 kVA=39.6449 irradiance=1 Pmpp=33.0374 %cutin=0.1 %cutout=0.1
New PVSystem.PV_61 phases=1 bus1=G2101GC3200_N292623_sec_6.1 kV=0.24 kVA=3.36 irradiance=1 Pmpp=2.8 %cutin=0.1 %cutout=0.1
New PVSystem.PV_62 phases=1 bus1=G2101GC3200_N292623_sec_15.1 kV=0.24 kVA=4.08 irradiance=1 Pmpp=3.4 %cutin=0.1 %cutout=0.1
New PVSystem.PV_63 phases=1 bus1=G2101GC3400_N292625_sec_20.1 kV=0.24 kVA=6.12 irradiance=1 Pmpp=5.1 %cutin=0.1 %cutout=0.1
New PVSystem.PV_64 phases=1 bus1=G2101GD5100_N292637_sec_21.1 kV=0.24 kVA=9.12 irradiance=1 Pmpp=7.6 %cutin=0.1 %cutout=0.1
New PVSystem.PV_65 phases=1 bus1=G2101GH4500_N292745_sec_1.3 kV=0.24 kVA=1.68 irradiance=1 Pmpp=1.4 %cutin=0.1 %cutout=0.1
New PVSystem.PV_66 phases=3 conn = delta bus1=G2101HA1300_N292535_sec_2.1.2.3 kV=0.48 kVA=18.24 irradiance=1 Pmpp=15.2 %cutin=0.1 %cutout=0.1
New PVSystem.PV_67 phases=1 bus1=G2101HD3500_N292652_sec_4.1 kV=0.24 kVA=3.96 irradiance=1 Pmpp=3.3 %cutin=0.1 %cutout=0.1
New PVSystem.PV_68 phases=1 bus1=G2101IK4600_N300997_sec_2.3 kV=0.24 kVA=5.88 irradiance=1 Pmpp=4.9 %cutin=0.1 %cutout=0.1
New PVSystem.PV_69 phases=3 conn = delta bus1=G2101JA6700_N1321243_sec_14.1.2.3 kV=0.48 kVA=12 irradiance=1 Pmpp=10 %cutin=0.1 %cutout=0.1
New PVSystem.PV_70 phases=1 bus1=G2101KE3900_N300817_sec_3.1 kV=0.24 kVA=6.84 irradiance=1 Pmpp=5.7 %cutin=0.1 %cutout=0.1
New PVSystem.PV_71 phases=1 bus1=G2101PB2500_N300719_sec_8.3 kV=0.24 kVA=5.76 irradiance=1 Pmpp=4.8 %cutin=0.1 %cutout=0.1
New PVSystem.PV_72 phases=1 bus1=G2101PC1800_N300764_sec_2.3 kV=0.24 kVA=1.2 irradiance=1 Pmpp=1 %cutin=0.1 %cutout=0.1
New PVSystem.PV_73 phases=1 bus1=G2101QC1100_N300736_sec_3.3 kV=0.24 kVA=3.84 irradiance=1 Pmpp=3.2 %cutin=0.1 %cutout=0.1
New PVSystem.PV_74 phases=1 bus1=G2101QC6000_N300736_sec_1.3 kV=0.24 kVA=5.28 irradiance=1 Pmpp=4.4 %cutin=0.1 %cutout=0.1
New PVSystem.PV_75 phases=1 bus1=G2101RB6300_N312566_sec_8.1 kV=0.24 kVA=2.9863 irradiance=1 Pmpp=2.4886 %cutin=0.1 %cutout=0.1
New PVSystem.PV_76 phases=1 bus1=G2102BB3500_N284331_sec_2.1 kV=0.24 kVA=12 irradiance=1 Pmpp=10 %cutin=0.1 %cutout=0.1
New PVSystem.PV_77 phases=1 bus1=G2102BF5100_N284387_sec_2.1 kV=0.24 kVA=10.08 irradiance=1 Pmpp=8.4 %cutin=0.1 %cutout=0.1
New PVSystem.PV_78 phases=1 bus1=G2102DE7300_N284356_sec_3.1 kV=0.24 kVA=7.5566 irradiance=1 Pmpp=6.2972 %cutin=0.1 %cutout=0.1
New PVSystem.PV_79 phases=1 bus1=G2000SK7800_N274150_sec_3.2 kV=0.24 kVA=6 irradiance=1 Pmpp=5 %cutin=0.1 %cutout=0.1
New PVSystem.PV_80 phases=1 bus1=G2000UH9400_N283633_sec_1.3 kV=0.24 kVA=3.12 irradiance=1 Pmpp=2.6 %cutin=0.1 %cutout=0.1
New PVSystem.PV_81 phases=1 bus1=G2000UI6400_N283679_sec_2.3 kV=0.24 kVA=2.28 irradiance=1 Pmpp=1.9 %cutin=0.1 %cutout=0.1
New PVSystem.PV_82 phases=1 bus1=G2000VM6800_N283833_sec_1.2 kV=0.24 kVA=6.48 irradiance=1 Pmpp=5.4 %cutin=0.1 %cutout=0.1
New PVSystem.PV_83 phases=1 bus1=G2000XH0500_N283607_sec_1.3 kV=0.24 kVA=3.12 irradiance=1 Pmpp=2.6 %cutin=0.1 %cutout=0.1
New PVSystem.PV_84 phases=1 bus1=G2000XH4800_N283608_sec_3.2 kV=0.24 kVA=10.92 irradiance=1 Pmpp=9.1 %cutin=0.1 %cutout=0.1
New PVSystem.PV_85 phases=1 bus1=G2001RH4100_N274394_sec_6.2 kV=0.24 kVA=11.88 irradiance=1 Pmpp=9.9 %cutin=0.1 %cutout=0.1
New PVSystem.PV_86 phases=1 bus1=G2001RH4100_N274394_sec_8.2 kV=0.24 kVA=6.12 irradiance=1 Pmpp=5.1 %cutin=0.1 %cutout=0.1
New PVSystem.PV_87 phases=1 bus1=G2001SH3700_N274411_sec_9.1 kV=0.24 kVA=0.96 irradiance=1 Pmpp=0.8 %cutin=0.1 %cutout=0.1
New PVSystem.PV_88 phases=1 bus1=G2001SI3300_N274448_sec_3.1 kV=0.24 kVA=6.84 irradiance=1 Pmpp=5.7 %cutin=0.1 %cutout=0.1
New PVSystem.PV_89 phases=1 bus1=G2001UD7700_N284028_sec_3.3 kV=0.24 kVA=3 irradiance=1 Pmpp=2.5 %cutin=0.1 %cutout=0.1
New PVSystem.PV_90 phases=1 bus1=G2001UE1100_N284038_sec_3.3 kV=0.24 kVA=6.24 irradiance=1 Pmpp=5.2 %cutin=0.1 %cutout=0.1
New PVSystem.PV_91 phases=1 bus1=G2001UF5200_N284089_sec_1.3 kV=0.24 kVA=4.44 irradiance=1 Pmpp=3.7 %cutin=0.1 %cutout=0.1
New PVSystem.PV_92 phases=1 bus1=G2001UL2700_N284245_sec_1.2 kV=0.24 kVA=5.16 irradiance=1 Pmpp=4.3 %cutin=0.1 %cutout=0.1
New PVSystem.PV_93 phases=1 bus1=G2001XJ9600_N284217_sec_2.3 kV=0.24 kVA=5.88 irradiance=1 Pmpp=4.9 %cutin=0.1 %cutout=0.1
New PVSystem.PV_94 phases=1 bus1=G2001YA0300_N283918_sec_2.3 kV=0.24 kVA=3.12 irradiance=1 Pmpp=2.6 %cutin=0.1 %cutout=0.1
New PVSystem.PV_95 phases=1 bus1=G2001YA0300_N283918_sec_3.3 kV=0.24 kVA=6.6 irradiance=1 Pmpp=5.5 %cutin=0.1 %cutout=0.1
New PVSystem.PV_96 phases=1 bus1=G2100AM9800_N283829_sec_4.1 kV=0.24 kVA=7.5348 irradiance=1 Pmpp=6.279 %cutin=0.1 %cutout=0.1
New PVSystem.PV_97 phases=1 bus1=G2100BG5600_N283598_sec_1.3 kV=0.24 kVA=3.96 irradiance=1 Pmpp=3.3 %cutin=0.1 %cutout=0.1
New PVSystem.PV_98 phases=1 bus1=G2100BH3900_N283665_sec_1.3 kV=0.24 kVA=2.76 irradiance=1 Pmpp=2.3 %cutin=0.1 %cutout=0.1
New PVSystem.PV_99 phases=1 bus1=G2100BH3900_N283665_sec_3.3 kV=0.24 kVA=2.88 irradiance=1 Pmpp=2.4 %cutin=0.1 %cutout=0.1
New PVSystem.PV_100 phases=1 bus1=G2100BJ7400_N283728_sec_3.2 kV=0.24 kVA=6 irradiance=1 Pmpp=5 %cutin=0.1 %cutout=0.1
New PVSystem.PV_101 phases=1 bus1=G2100BO8200_N283874_sec_1.3 kV=0.24 kVA=3.84 irradiance=1 Pmpp=3.2 %cutin=0.1 %cutout=0.1
New PVSystem.PV_102 phases=1 bus1=G2100CI3400_N1370071_sec_1.1 kV=0.24 kVA=0.84 irradiance=1 Pmpp=0.7 %cutin=0.1 %cutout=0.1
New PVSystem.PV_103 phases=1 bus1=G2100CL7400_N283783_sec_1.1 kV=0.24 kVA=7.56 irradiance=1 Pmpp=6.3 %cutin=0.1 %cutout=0.1
New PVSystem.PV_104 phases=1 bus1=G2100CN4900_N283858_sec_9.3 kV=0.24 kVA=3.12 irradiance=1 Pmpp=2.6 %cutin=0.1 %cutout=0.1
New PVSystem.PV_105 phases=1 bus1=G2100CN9200_N283841_sec_1.3 kV=0.24 kVA=1.92 irradiance=1 Pmpp=1.6 %cutin=0.1 %cutout=0.1
New PVSystem.PV_106 phases=1 bus1=G2100DJ0500_N283740_sec_6.2 kV=0.24 kVA=6.72 irradiance=1 Pmpp=5.6 %cutin=0.1 %cutout=0.1
New PVSystem.PV_107 phases=1 bus1=G2100EM1500_N292428_sec_5.3 kV=0.24 kVA=2.28 irradiance=1 Pmpp=1.9 %cutin=0.1 %cutout=0.1
New PVSystem.PV_108 phases=1 bus1=G2100EM2500_N292390_sec_3.2 kV=0.24 kVA=4.2 irradiance=1 Pmpp=3.5 %cutin=0.1 %cutout=0.1
New PVSystem.PV_109 phases=1 bus1=G2100EM2500_N292390_sec_17.2 kV=0.24 kVA=11.28 irradiance=1 Pmpp=9.4 %cutin=0.1 %cutout=0.1
New PVSystem.PV_110 phases=3 conn = delta bus1=G2100FE2600_N292234_sec_17.1.2.3 kV=0.48 kVA=14.64 irradiance=1 Pmpp=12.2 %cutin=0.1 %cutout=0.1
New PVSystem.PV_111 phases=3 conn = delta bus1=G2100FH3200_N292302_sec_5.1.2.3 kV=0.48 kVA=10.2 irradiance=1 Pmpp=8.5 %cutin=0.1 %cutout=0.1
New PVSystem.PV_112 phases=1 bus1=G2100FJ2800_N292373_sec_2.2 kV=0.24 kVA=7.2592 irradiance=1 Pmpp=6.0493 %cutin=0.1 %cutout=0.1
New PVSystem.PV_113 phases=3 conn = delta bus1=G2100FJ3800_N292380_sec_2.1.2.3 kV=0.48 kVA=2.88 irradiance=1 Pmpp=2.4 %cutin=0.1 %cutout=0.1
New PVSystem.PV_114 phases=3 conn = delta bus1=G2100FJ4400_N292396_sec_1.1.2.3 kV=0.48 kVA=14.16 irradiance=1 Pmpp=11.8 %cutin=0.1 %cutout=0.1
New PVSystem.PV_115 phases=3 conn = delta bus1=G2100FJ4400_N292396_sec_5.1.2.3 kV=0.48 kVA=10.32 irradiance=1 Pmpp=8.6 %cutin=0.1 %cutout=0.1
New PVSystem.PV_116 phases=3 conn = delta bus1=G2100GM1700_N292446_sec_3.1.2.3 kV=0.48 kVA=9.12 irradiance=1 Pmpp=7.6 %cutin=0.1 %cutout=0.1
New PVSystem.PV_117 phases=1 bus1=G2100GM9700_N292423_sec_2.3 kV=0.24 kVA=1.56 irradiance=1 Pmpp=1.3 %cutin=0.1 %cutout=0.1
New PVSystem.PV_118 phases=1 bus1=G2100GM9700_N292423_sec_24.3 kV=0.24 kVA=2.52 irradiance=1 Pmpp=2.1 %cutin=0.1 %cutout=0.1
New PVSystem.PV_119 phases=3 conn = delta bus1=G2100HI8200_N292329_sec_3.1.2.3 kV=0.48 kVA=13.08 irradiance=1 Pmpp=10.9 %cutin=0.1 %cutout=0.1
New PVSystem.PV_120 phases=1 bus1=G2100HM3200_N292420_sec_7.3 kV=0.24 kVA=0.36 irradiance=1 Pmpp=0.3 %cutin=0.1 %cutout=0.1
New PVSystem.PV_121 phases=1 bus1=G2100HM3200_N292420_sec_33.3 kV=0.24 kVA=0.36 irradiance=1 Pmpp=0.3 %cutin=0.1 %cutout=0.1
New PVSystem.PV_122 phases=1 bus1=G2100HM9900_N292433_sec_26.3 kV=0.24 kVA=2.16 irradiance=1 Pmpp=1.8 %cutin=0.1 %cutout=0.1
New PVSystem.PV_123 phases=1 bus1=G2100HN5600_N292453_sec_29.3 kV=0.24 kVA=0.72 irradiance=1 Pmpp=0.6 %cutin=0.1 %cutout=0.1
New PVSystem.PV_124 phases=3 conn = delta bus1=G2100KO2700_N300582_sec_6.1.2.3 kV=0.48 kVA=3 irradiance=1 Pmpp=2.5 %cutin=0.1 %cutout=0.1
New PVSystem.PV_125 phases=1 bus1=G2100KO9900_N300626_sec_1.1 kV=0.24 kVA=2.64 irradiance=1 Pmpp=2.2 %cutin=0.1 %cutout=0.1
New PVSystem.PV_126 phases=3 conn = delta bus1=G2100NI4800_N300455_sec_3.1.2.3 kV=0.48 kVA=59.9877 irradiance=1 Pmpp=49.9897 %cutin=0.1 %cutout=0.1
New PVSystem.PV_127 phases=1 bus1=G2100NL6900_N300504_sec_4.1 kV=0.24 kVA=6.96 irradiance=1 Pmpp=5.8 %cutin=0.1 %cutout=0.1
New PVSystem.PV_128 phases=1 bus1=G2100NM7500_N300513_sec_4.1 kV=0.24 kVA=5.4 irradiance=1 Pmpp=4.5 %cutin=0.1 %cutout=0.1
New PVSystem.PV_129 phases=1 bus1=G2100OM0900_N300535_sec_1.1 kV=0.24 kVA=5.845 irradiance=1 Pmpp=4.8709 %cutin=0.1 %cutout=0.1
New PVSystem.PV_130 phases=1 bus1=G2100RM5200_N312343_sec_6.3 kV=0.24 kVA=5.16 irradiance=1 Pmpp=4.3 %cutin=0.1 %cutout=0.1
New PVSystem.PV_131 phases=1 bus1=G2101CC0600_N283951_sec_4.3 kV=0.24 kVA=3.96 irradiance=1 Pmpp=3.3 %cutin=0.1 %cutout=0.1
New PVSystem.PV_132 phases=1 bus1=G2101CG5400_N284126_sec_2.2 kV=0.24 kVA=8.6306 irradiance=1 Pmpp=7.1922 %cutin=0.1 %cutout=0.1
New PVSystem.PV_133 phases=1 bus1=G2101DC0100_N283946_sec_5.1 kV=0.24 kVA=10.44 irradiance=1 Pmpp=8.7 %cutin=0.1 %cutout=0.1
New PVSystem.PV_134 phases=1 bus1=G2101DD6900_N284041_sec_2.2 kV=0.24 kVA=5.64 irradiance=1 Pmpp=4.7 %cutin=0.1 %cutout=0.1
New PVSystem.PV_135 phases=1 bus1=G2101EH3000_N292742_sec_2.2 kV=0.24 kVA=10.0135 irradiance=1 Pmpp=8.3446 %cutin=0.1 %cutout=0.1
New PVSystem.PV_136 phases=1 bus1=G2101FC8400_N292612_sec_2.2 kV=0.24 kVA=4.44 irradiance=1 Pmpp=3.7 %cutin=0.1 %cutout=0.1
New PVSystem.PV_137 phases=1 bus1=G2101FD9100_N292643_sec_6.1 kV=0.24 kVA=3.96 irradiance=1 Pmpp=3.3 %cutin=0.1 %cutout=0.1
New PVSystem.PV_138 phases=1 bus1=G2101FD9100_N292643_sec_21.1 kV=0.24 kVA=1.32 irradiance=1 Pmpp=1.1 %cutin=0.1 %cutout=0.1
New PVSystem.PV_139 phases=1 bus1=G2101GC9700_N292633_sec_6.1 kV=0.24 kVA=3.6 irradiance=1 Pmpp=3 %cutin=0.1 %cutout=0.1
New PVSystem.PV_140 phases=1 bus1=G2101GC9700_N292633_sec_11.1 kV=0.24 kVA=2.64 irradiance=1 Pmpp=2.2 %cutin=0.1 %cutout=0.1
New PVSystem.PV_141 phases=1 bus1=G2101GN1100_N292849_sec_3.2 kV=0.24 kVA=16.44 irradiance=1 Pmpp=13.7 %cutin=0.1 %cutout=0.1
New PVSystem.PV_142 phases=1 bus1=G2101GN5000_N292870_sec_2.2 kV=0.24 kVA=3.84 irradiance=1 Pmpp=3.2 %cutin=0.1 %cutout=0.1
New PVSystem.PV_143 phases=1 bus1=G2101HD3500_N292652_sec_10.1 kV=0.24 kVA=2.4 irradiance=1 Pmpp=2 %cutin=0.1 %cutout=0.1
New PVSystem.PV_144 phases=1 bus1=G2101HI9300_N292770_sec_3.3 kV=0.24 kVA=4.2 irradiance=1 Pmpp=3.5 %cutin=0.1 %cutout=0.1
New PVSystem.PV_145 phases=1 bus1=G2101II8600_N292779_sec_1.3 kV=0.24 kVA=7.68 irradiance=1 Pmpp=6.4 %cutin=0.1 %cutout=0.1
New PVSystem.PV_146 phases=3 conn = delta bus1=G2101JA6700_N1321243_sec_6.1.2.3 kV=0.48 kVA=12 irradiance=1 Pmpp=10 %cutin=0.1 %cutout=0.1
New PVSystem.PV_147 phases=1 bus1=G2101KA2300_N300631_sec_10.1 kV=0.24 kVA=2.16 irradiance=1 Pmpp=1.8 %cutin=0.1 %cutout=0.1
New PVSystem.PV_148 phases=1 bus1=G2101KA3900_N300679_sec_17.1 kV=0.24 kVA=3.36 irradiance=1 Pmpp=2.8 %cutin=0.1 %cutout=0.1
New PVSystem.PV_149 phases=1 bus1=G2101KA6200_N300623_sec_12.1 kV=0.24 kVA=3.6 irradiance=1 Pmpp=3 %cutin=0.1 %cutout=0.1
New PVSystem.PV_150 phases=1 bus1=G2101PB2500_N300719_sec_9.3 kV=0.24 kVA=2.4 irradiance=1 Pmpp=2 %cutin=0.1 %cutout=0.1
New PVSystem.PV_151 phases=1 bus1=G2101PC3200_N300744_sec_5.3 kV=0.24 kVA=3 irradiance=1 Pmpp=2.5 %cutin=0.1 %cutout=0.1
New PVSystem.PV_152 phases=1 bus1=G2101QB0400_N300714_sec_3.3 kV=0.24 kVA=5.52 irradiance=1 Pmpp=4.6 %cutin=0.1 %cutout=0.1
New PVSystem.PV_153 phases=1 bus1=G2101RA0900_N300678_sec_5.1 kV=0.24 kVA=3.84 irradiance=1 Pmpp=3.2 %cutin=0.1 %cutout=0.1
New PVSystem.PV_154 phases=1 bus1=G2101RC6500_N312606_sec_3.1 kV=0.24 kVA=3 irradiance=1 Pmpp=2.5 %cutin=0.1 %cutout=0.1
New PVSystem.PV_155 phases=1 bus1=G2102AG6500_N284433_sec_1.1 kV=0.24 kVA=7.6726 irradiance=1 Pmpp=6.3938 %cutin=0.1 %cutout=0.1
New PVSystem.PV_156 phases=1 bus1=G2000TJ2700_N274103_sec_4.3 kV=0.24 kVA=5.04 irradiance=1 Pmpp=4.2 %cutin=0.1 %cutout=0.1
New PVSystem.PV_157 phases=1 bus1=G2000UJ0800_N283722_sec_3.3 kV=0.24 kVA=4.92 irradiance=1 Pmpp=4.1 %cutin=0.1 %cutout=0.1
New PVSystem.PV_158 phases=1 bus1=G2000WH5900_N283675_sec_2.2 kV=0.24 kVA=9 irradiance=1 Pmpp=7.5 %cutin=0.1 %cutout=0.1
New PVSystem.PV_159 phases=1 bus1=G2000XL8000_N283769_sec_4.1 kV=0.24 kVA=3.24 irradiance=1 Pmpp=2.7 %cutin=0.1 %cutout=0.1
New PVSystem.PV_160 phases=1 bus1=G2000XM1800_N283834_sec_1.3 kV=0.24 kVA=5.76 irradiance=1 Pmpp=4.8 %cutin=0.1 %cutout=0.1
New PVSystem.PV_161 phases=1 bus1=G2001SH3700_N274411_sec_4.1 kV=0.24 kVA=6.6737 irradiance=1 Pmpp=5.5614 %cutin=0.1 %cutout=0.1
New PVSystem.PV_162 phases=1 bus1=G2001SI2800_N274447_sec_5.1 kV=0.24 kVA=7.2 irradiance=1 Pmpp=6 %cutin=0.1 %cutout=0.1
New PVSystem.PV_163 phases=1 bus1=G2001TD6700_N274321_sec_4.3 kV=0.24 kVA=5.16 irradiance=1 Pmpp=4.3 %cutin=0.1 %cutout=0.1
New PVSystem.PV_164 phases=1 bus1=G2001UB2100_N283965_sec_10.3 kV=0.24 kVA=4.7167 irradiance=1 Pmpp=3.9306 %cutin=0.1 %cutout=0.1
New PVSystem.PV_165 phases=1 bus1=G2001UD7700_N284028_sec_1.3 kV=0.24 kVA=10.0441 irradiance=1 Pmpp=8.3701 %cutin=0.1 %cutout=0.1
New PVSystem.PV_166 phases=1 bus1=G2001UD7700_N284028_sec_8.3 kV=0.24 kVA=1.44 irradiance=1 Pmpp=1.2 %cutin=0.1 %cutout=0.1
New PVSystem.PV_167 phases=1 bus1=G2001VA3800_N283914_sec_6.3 kV=0.24 kVA=4.92 irradiance=1 Pmpp=4.1 %cutin=0.1 %cutout=0.1
New PVSystem.PV_168 phases=1 bus1=G2001VB5300_N283949_sec_3.3 kV=0.24 kVA=5.88 irradiance=1 Pmpp=4.9 %cutin=0.1 %cutout=0.1
New PVSystem.PV_169 phases=1 bus1=G2001WB8800_N283948_sec_6.3 kV=0.24 kVA=5.04 irradiance=1 Pmpp=4.2 %cutin=0.1 %cutout=0.1
New PVSystem.PV_170 phases=1 bus1=G2001XC7500_N283961_sec_2.3 kV=0.24 kVA=4.32 irradiance=1 Pmpp=3.6 %cutin=0.1 %cutout=0.1
New PVSystem.PV_171 phases=1 bus1=G2100AM8100_N283813_sec_2.1 kV=0.24 kVA=3.24 irradiance=1 Pmpp=2.7 %cutin=0.1 %cutout=0.1
New PVSystem.PV_172 phases=1 bus1=G2100BE8900_N283564_sec_2.3 kV=0.24 kVA=5.76 irradiance=1 Pmpp=4.8 %cutin=0.1 %cutout=0.1
New PVSystem.PV_173 phases=1 bus1=G2100CG0300_N283590_sec_13.3 kV=0.24 kVA=3.12 irradiance=1 Pmpp=2.6 %cutin=0.1 %cutout=0.1
New PVSystem.PV_174 phases=1 bus1=G2100CN4900_N283858_sec_13.3 kV=0.24 kVA=1.44 irradiance=1 Pmpp=1.2 %cutin=0.1 %cutout=0.1
New PVSystem.PV_175 phases=1 bus1=G2100DG1300_N283601_sec_6.3 kV=0.24 kVA=1.8 irradiance=1 Pmpp=1.5 %cutin=0.1 %cutout=0.1
New PVSystem.PV_176 phases=1 bus1=G2100DN3000_N283838_sec_16.3 kV=0.24 kVA=1.68 irradiance=1 Pmpp=1.4 %cutin=0.1 %cutout=0.1
New PVSystem.PV_177 phases=1 bus1=G2100DN4800_N283861_sec_17.3 kV=0.24 kVA=2.4 irradiance=1 Pmpp=2 %cutin=0.1 %cutout=0.1
New PVSystem.PV_178 phases=1 bus1=G2100EH3700_N292308_sec_11.1 kV=0.24 kVA=2.76 irradiance=1 Pmpp=2.3 %cutin=0.1 %cutout=0.1
New PVSystem.PV_179 phases=1 bus1=G2100EM2500_N292390_sec_7.2 kV=0.24 kVA=6.48 irradiance=1 Pmpp=5.4 %cutin=0.1 %cutout=0.1
New PVSystem.PV_180 phases=1 bus1=G2100EM6500_N292425_sec_2.3 kV=0.24 kVA=2.16 irradiance=1 Pmpp=1.8 %cutin=0.1 %cutout=0.1
New PVSystem.PV_181 phases=1 bus1=G2100EN8600_N292479_sec_3.3 kV=0.24 kVA=1.44 irradiance=1 Pmpp=1.2 %cutin=0.1 %cutout=0.1
New PVSystem.PV_182 phases=3 conn = delta bus1=G2100FE2600_N292234_sec_4.1.2.3 kV=0.48 kVA=8.76 irradiance=1 Pmpp=7.3 %cutin=0.1 %cutout=0.1
New PVSystem.PV_183 phases=3 conn = delta bus1=G2100FH3200_N292302_sec_7.1.2.3 kV=0.48 kVA=25.56 irradiance=1 Pmpp=21.3 %cutin=0.1 %cutout=0.1
New PVSystem.PV_184 phases=3 conn = delta bus1=G2100FJ3800_N292380_sec_6.1.2.3 kV=0.48 kVA=5.88 irradiance=1 Pmpp=4.9 %cutin=0.1 %cutout=0.1
New PVSystem.PV_185 phases=1 bus1=G2100FK5800_N292373_sec_6.2 kV=0.24 kVA=8.28 irradiance=1 Pmpp=6.9 %cutin=0.1 %cutout=0.1
New PVSystem.PV_186 phases=1 bus1=G2100FK6600_N292401_sec_1.1 kV=0.24 kVA=5.04 irradiance=1 Pmpp=4.2 %cutin=0.1 %cutout=0.1
New PVSystem.PV_187 phases=1 bus1=G2100FK9800_N292385_sec_5.1 kV=0.24 kVA=2.28 irradiance=1 Pmpp=1.9 %cutin=0.1 %cutout=0.1
New PVSystem.PV_188 phases=1 bus1=G2100FL3500_N292410_sec_4.2 kV=0.24 kVA=6.24 irradiance=1 Pmpp=5.2 %cutin=0.1 %cutout=0.1
New PVSystem.PV_189 phases=1 bus1=G2100FL3500_N292410_sec_9.2 kV=0.24 kVA=6.1788 irradiance=1 Pmpp=5.149 %cutin=0.1 %cutout=0.1
New PVSystem.PV_190 phases=1 bus1=G2100FO1600_N292502_sec_2.3 kV=0.24 kVA=0.12 irradiance=1 Pmpp=0.1 %cutin=0.1 %cutout=0.1
New PVSystem.PV_191 phases=3 conn = delta bus1=G2100GM5300_N292446_sec_6.1.2.3 kV=0.48 kVA=21.84 irradiance=1 Pmpp=18.2 %cutin=0.1 %cutout=0.1
New PVSystem.PV_192 phases=1 bus1=G2100GM9700_N292423_sec_36.3 kV=0.24 kVA=1.32 irradiance=1 Pmpp=1.1 %cutin=0.1 %cutout=0.1
New PVSystem.PV_193 phases=1 bus1=G2100GO6100_N292504_sec_1.1 kV=0.24 kVA=8.04 irradiance=1 Pmpp=6.7 %cutin=0.1 %cutout=0.1
New PVSystem.PV_194 phases=1 bus1=G2100HM9900_N292433_sec_6.3 kV=0.24 kVA=2.88 irradiance=1 Pmpp=2.4 %cutin=0.1 %cutout=0.1
New PVSystem.PV_195 phases=1 bus1=G2100IL1000_N292412_sec_15.3 kV=0.24 kVA=2.64 irradiance=1 Pmpp=2.2 %cutin=0.1 %cutout=0.1
New PVSystem.PV_196 phases=1 bus1=G2100IN7700_N292438_sec_7.3 kV=0.24 kVA=2.52 irradiance=1 Pmpp=2.1 %cutin=0.1 %cutout=0.1
New PVSystem.PV_197 phases=1 bus1=G2100NM4100_N300509_sec_1.1 kV=0.24 kVA=3.6 irradiance=1 Pmpp=3 %cutin=0.1 %cutout=0.1
New PVSystem.PV_198 phases=1 bus1=G2100QN1500_N300555_sec_5.2 kV=0.24 kVA=6.36 irradiance=1 Pmpp=5.3 %cutin=0.1 %cutout=0.1
New PVSystem.PV_199 phases=1 bus1=G2100QP9600_N300587_sec_3.2 kV=0.24 kVA=6.84 irradiance=1 Pmpp=5.7 %cutin=0.1 %cutout=0.1
New PVSystem.PV_200 phases=1 bus1=G2101AB4600_N283913_sec_2.3 kV=0.24 kVA=3.36 irradiance=1 Pmpp=2.8 %cutin=0.1 %cutout=0.1
...
